dataConverter/IEEE_30_VLN.Txt

SYMMETRICAL COMPONENT VOLTAGES BY BUS (for 3-phase buses)

Bus   Mag:   V1 (kV)    p.u.     V2 (kV)   %V2/V1    V0 (kV)    %V0/V1

b1       80.78       1.06  3.948E-008  4.887E-008 5.255E-009 6.505E-009
b2       79.69      1.046  3.908E-008  4.904E-008 4.959E-009 6.224E-009
b3       77.83      1.021  3.822E-008  4.911E-008 4.736E-009 6.085E-009
b4       77.15      1.012  3.794E-008  4.918E-008 4.783E-009  6.2E-009
b5       76.89      1.009  3.807E-008  4.952E-008 5.529E-009 7.19E-009
b6       77.01       1.01  3.794E-008  4.927E-008 4.967E-009 6.45E-009
b7       76.37      1.002  3.772E-008  4.939E-008 5.169E-009 6.769E-009
b8       76.95       1.01  3.795E-008  4.932E-008 5.067E-009 6.585E-009
b12      20.15      1.058  9.979E-009  4.952E-008 1.339E-009 6.643E-009
b14      19.87      1.043  9.847E-009  4.956E-008 1.327E-009 6.679E-009
b15      19.78      1.038  9.803E-009  4.955E-008 1.317E-009 6.658E-009
b16      19.91      1.045  9.861E-009  4.953E-008 1.326E-009 6.66E-009
b17      19.82       1.04  9.821E-009  4.955E-008 1.336E-009 6.74E-009
b18       19.6      1.029  9.718E-009  4.959E-008 1.319E-009 6.732E-009
b19      19.55      1.026  9.696E-009  4.96E-008 1.323E-009 6.769E-009
b20      19.63       1.03  9.732E-009  4.959E-008 1.33E-009 6.776E-009
b10      19.92      1.045  9.869E-009  4.955E-008 1.352E-009 6.786E-009
b21      19.68      1.033  9.755E-009  4.956E-008 1.329E-009 6.751E-009
b22      19.69      1.034  9.76E-009  4.956E-008 1.33E-009 6.754E-009
b23      19.58      1.028  9.705E-009  4.956E-008 1.307E-009 6.675E-009
b24      19.47      1.022  9.651E-009  4.956E-008 1.308E-009 6.72E-009
b25      19.39      1.018  9.611E-009  4.957E-008 1.307E-009 6.739E-009
b26      19.05     0.9999  9.445E-009  4.958E-008 1.268E-009 6.657E-009
b27       19.5      1.023  9.665E-009  4.957E-008 1.323E-009 6.784E-009
b29      19.12      1.004  9.492E-009  4.964E-008 1.317E-009 6.886E-009
b30       18.9     0.9922  9.395E-009  4.97E-008 1.327E-009 7.022E-009
b28      76.74      1.007  3.783E-008  4.93E-008 4.99E-009 6.502E-009
b9      0.6068      1.051  3.002E-010  4.946E-008 4.044E-011 6.665E-009
b11      6.871      1.082  3.402E-009  4.951E-008 4.573E-010 6.656E-009
b13      6.807      1.072  3.372E-009  4.953E-008 4.522E-010 6.643E-009
